Version 4
SHEET 1 1304 680
WIRE 144 -64 -368 -64
WIRE -368 -16 -368 -64
WIRE 144 -16 144 -64
WIRE 144 -16 -368 -16
WIRE -192 64 -192 48
WIRE 288 64 288 32
WIRE 576 80 416 80
WIRE 32 144 32 128
WIRE 32 144 0 144
WIRE 416 144 416 80
WIRE 464 144 416 144
WIRE -192 160 -192 144
WIRE 32 160 32 144
WIRE 576 160 576 80
WIRE 576 160 528 160
WIRE 768 160 576 160
WIRE 928 160 848 160
WIRE 976 160 928 160
WIRE 1104 160 1056 160
WIRE 288 176 288 144
WIRE 464 176 288 176
WIRE 288 208 288 176
WIRE 928 288 928 160
WIRE 976 288 928 288
WIRE -368 304 -368 -16
WIRE 144 304 144 -16
WIRE 144 304 -368 304
WIRE 1104 304 1104 160
WIRE 1104 304 1040 304
WIRE 288 320 288 288
WIRE 768 320 720 320
WIRE 928 320 848 320
WIRE 976 320 928 320
WIRE -368 352 -368 304
WIRE 144 352 144 304
WIRE 144 352 -368 352
WIRE -368 416 -368 352
WIRE 144 416 144 352
WIRE 144 416 -368 416
WIRE 928 448 928 320
WIRE 976 448 928 448
WIRE 1104 448 1104 304
WIRE 1104 448 1056 448
WIRE 928 496 928 448
WIRE 928 608 928 576
FLAG 0 144 0
FLAG 32 48 vp+
FLAG 32 240 vp-
FLAG 288 320 0
FLAG 496 128 vp+
FLAG 496 192 vp-
FLAG 288 32 vp-
FLAG -192 160 0
FLAG 928 608 0
FLAG -192 48 vin
FLAG 1008 272 vp+
FLAG 1008 336 vp-
FLAG 288 176 vref
FLAG 928 448 out
FLAG 720 320 vin
SYMBOL voltage 32 32 R0
WINDOW 3 37 54 Left 2
SYMATTR Value 12V
SYMATTR InstName V1
SYMBOL voltage 32 144 R0
WINDOW 3 36 59 Left 2
SYMATTR Value 12V
SYMATTR InstName V2
SYMBOL res 272 48 R0
SYMATTR InstName R1
SYMATTR Value 100k
SYMBOL res 272 192 R0
SYMATTR InstName R2
SYMATTR Value 27k
SYMBOL OpAmps\\opamp2 496 96 R0
SYMATTR InstName U1
SYMATTR Value TL082
SYMBOL res 864 144 R90
WINDOW 0 0 56 VBottom 2
WINDOW 3 32 56 VTop 2
SYMATTR InstName R3
SYMATTR Value 625
SYMBOL OpAmps\\opamp2 1008 240 R0
SYMATTR InstName U2
SYMATTR Value TL082
SYMBOL res 1072 144 R90
WINDOW 0 0 56 VBottom 2
WINDOW 3 32 56 VTop 2
SYMATTR InstName R4
SYMATTR Value 500
SYMBOL res 864 304 R90
WINDOW 0 0 56 VBottom 2
WINDOW 3 32 56 VTop 2
SYMATTR InstName R5
SYMATTR Value 625
SYMBOL res 1072 432 R90
WINDOW 0 0 56 VBottom 2
WINDOW 3 32 56 VTop 2
SYMATTR InstName R6
SYMATTR Value 500
SYMBOL res 912 480 R0
SYMATTR InstName RL
SYMATTR Value 250
SYMBOL voltage -192 48 R0
WINDOW 123 0 0 Left 0
WINDOW 39 0 0 Left 0
WINDOW 3 -157 155 Left 2
SYMATTR Value PULSE(0 10 0 1u 1u 3m 10m)
SYMATTR InstName V3
TEXT 400 -40 Left 2 !.include TL082.lib
TEXT -232 392 Left 2 !.tran 0 30m 0 0.01m
TEXT 600 104 Left 2 ;Vref = -2.5V
TEXT -176 -40 Left 2 ;Power Supply
TEXT -192 328 Left 2 ;Simulation Type
